resultados/CN12/cn15_140_volts.csv
Bus, BasekV, Node1, Magnitude1, Angle1, pu1, Node2, Magnitude2, Angle2, pu2, Node3, Magnitude3, Angle3, pu3
"SCN_CN15_9199_CEI77A_ATV", 13.8, 1,    7925.69,   -0.3,   0.99476, 2,    7925.69, -120.3,   0.99476, 3,    7925.69,  119.7,   0.99476
"SCN_CN15_9153_CEI109", 13.8, 1,    5838.14,   -5.0,   0.73275, 2,    5838.13, -125.0,   0.73275, 3,    5838.13,  115.0,   0.73275
"SCN_CN15_9154_CEI109", 13.8, 1,    5838.17,   -5.0,   0.73275, 2,    5838.16, -125.0,   0.73275, 3,    5838.17,  115.0,   0.73275
"SCN_CN15_9098_CEI131_ATV", 13.8, 1,    5928.06,   -4.6,   0.74404, 2,    5928.05, -124.6,   0.74404, 3,    5928.05,  115.4,   0.74404
"SCN_CN15_9097_CEI131_ATV", 13.8, 1,    5928.07,   -4.6,   0.74404, 2,    5928.06, -124.6,   0.74404, 3,    5928.06,  115.4,   0.74404
"SCN_CN15_9079_CEI201_ATV", 13.8, 1,    6028.41,   -4.1,   0.75663, 2,    6028.39, -124.1,   0.75663, 3,     6028.4,  115.9,   0.75663
"SCN_CN15_9080_CEI201_ATV", 13.8, 1,     6028.4,   -4.1,   0.75663, 2,    6028.39, -124.1,   0.75663, 3,    6028.39,  115.9,   0.75663
"SCN_CN15_9356_CEI109", 13.8, 1,    5808.57,   -5.1,   0.72904, 2,    5808.55, -125.1,   0.72904, 3,    5808.56,  114.9,   0.72904
"SCN_CN15_9349_CEI109", 13.8, 1,    5809.08,   -5.1,    0.7291, 2,    5809.07, -125.1,    0.7291, 3,    5809.07,  114.9,    0.7291
"SCN_CN15_9039_CEI201_ATV", 13.8, 1,    5809.33,   -5.1,   0.72913, 2,    5809.32, -125.1,   0.72913, 3,    5809.32,  114.9,   0.72913
"SCN_CN15_9021_CEI201_ATV", 13.8, 1,    5804.68,   -5.1,   0.72855, 2,    5804.66, -125.1,   0.72855, 3,    5804.67,  114.9,   0.72855
"SCN_CN15_9022_CEI201_ATV", 13.8, 1,    5804.88,   -5.1,   0.72858, 2,    5804.87, -125.1,   0.72857, 3,    5804.87,  114.9,   0.72858
"SCN_CN15_9274_CEI109", 13.8, 1,    5881.72,   -4.8,   0.73822, 2,    5881.71, -124.8,   0.73822, 3,    5881.71,  115.2,   0.73822
"SCN_CN15_9275_CEI109", 13.8, 1,    5880.28,   -4.8,   0.73804, 2,    5880.27, -124.8,   0.73804, 3,    5880.28,  115.2,   0.73804
"SCN_CN15_9269_CEI109", 13.8, 1,    5883.14,   -4.8,    0.7384, 2,    5883.13, -124.8,    0.7384, 3,    5883.14,  115.2,    0.7384
"SCN_CN15_9053_CEI201_ATV", 13.8, 1,    5811.61,   -5.1,   0.72942, 2,    5811.59, -125.1,   0.72942, 3,     5811.6,  114.9,   0.72942
"SCN_CN15_9485_CEI109", 13.8, 1,    5811.63,   -5.1,   0.72942, 2,    5811.62, -125.1,   0.72942, 3,    5811.62,  114.9,   0.72942
"SCN_CN15_421165_CEI", 13.8, 1,    6041.86,   -4.1,   0.75832, 2,    6041.84, -124.1,   0.75832, 3,    6041.85,  115.9,   0.75832
"SCN_CN15_421166_CEI", 13.8, 1,    6042.61,   -4.1,   0.75841, 2,    6042.59, -124.1,   0.75841, 3,     6042.6,  115.9,   0.75841
"SCN_CN15_9143_CEI69B", 13.8, 1,    6043.26,   -4.1,    0.7585, 2,    6043.25, -124.1,   0.75849, 3,    6043.26,  115.9,   0.75849
"SCN_CN15_9141_CEI201_ATV", 13.8, 1,    6041.86,   -4.1,   0.75832, 2,    6041.84, -124.1,   0.75832, 3,    6041.85,  115.9,   0.75832
"SCN_CN15_9129_CEI201_ATV", 13.8, 1,    6048.54,   -4.1,   0.75916, 2,    6048.53, -124.1,   0.75916, 3,    6048.53,  115.9,   0.75916
"SCN_CN15_9008_CEI220_ATV", 13.8, 1,    6048.54,   -4.1,   0.75916, 2,    6048.53, -124.1,   0.75916, 3,    6048.53,  115.9,   0.75916
"SCN_CN15_421168_CEI", 13.8, 1,    5920.38,   -4.6,   0.74307, 2,    5920.37, -124.6,   0.74307, 3,    5920.37,  115.4,   0.74307
"SCN_CN15_9015_CEI109", 13.8, 1,    5920.38,   -4.6,   0.74307, 2,    5920.37, -124.6,   0.74307, 3,    5920.37,  115.4,   0.74307
"SCN_CN15_421185_CEI", 13.8, 1,    5956.88,   -4.5,   0.74765, 2,    5956.87, -124.5,   0.74765, 3,    5956.87,  115.5,   0.74765
"SCN_CN15_9162_CEI220_ATV_S", 13.8, 1,    5954.99,   -4.5,   0.74742, 2,    5954.98, -124.5,   0.74741, 3,    5954.98,  115.5,   0.74742
"SCN_CN15_421186_CEI", 13.8, 1,    5958.29,   -4.5,   0.74783, 2,    5958.28, -124.5,   0.74783, 3,    5958.28,  115.5,   0.74783
"SCN_CN15_421187_CEI", 13.8, 1,    5959.95,   -4.5,   0.74804, 2,    5959.93, -124.5,   0.74804, 3,    5959.94,  115.5,   0.74804
"SCN_CN15_421169_CEI", 13.8, 1,     5962.3,   -4.5,   0.74833, 2,    5962.29, -124.5,   0.74833, 3,    5962.29,  115.5,   0.74833
"SCN_CN15_9012_CEI120", 13.8, 1,    5960.91,   -4.5,   0.74816, 2,    5960.89, -124.5,   0.74816, 3,     5960.9,  115.5,   0.74816
"SCN_CN15_421170_CEI", 13.8, 1,    5973.33,   -4.5,   0.74972, 2,    5973.32, -124.5,   0.74972, 3,    5973.32,  115.5,   0.74972
"SCN_CN15_421171_CEI", 13.8, 1,    5973.33,   -4.5,   0.74972, 2,    5973.32, -124.5,   0.74972, 3,    5973.32,  115.5,   0.74972
"SCN_CN15_421172_CEI", 13.8, 1,    5973.33,   -4.5,   0.74972, 2,    5973.32, -124.5,   0.74972, 3,    5973.32,  115.5,   0.74972
"SCN_CN15_421173_CEI", 13.8, 1,    5973.33,   -4.5,   0.74972, 2,    5973.32, -124.5,   0.74972, 3,    5973.32,  115.5,   0.74972
"SCN_CN15_421174_CEI", 13.8, 1,    5973.33,   -4.5,   0.74972, 2,    5973.32, -124.5,   0.74972, 3,    5973.32,  115.5,   0.74972
"SCN_CN15_421175_CEI", 13.8, 1,    5982.95,   -4.4,   0.75093, 2,    5982.93, -124.4,   0.75092, 3,    5982.94,  115.6,   0.75092
"SCN_CN15_421176_CEI", 13.8, 1,    5982.95,   -4.4,   0.75093, 2,    5982.93, -124.4,   0.75092, 3,    5982.94,  115.6,   0.75092
"SCN_CN15_421177_CEI", 13.8, 1,    5982.95,   -4.4,   0.75093, 2,    5982.93, -124.4,   0.75092, 3,    5982.94,  115.6,   0.75092
"SCN_CN15_421178_CEI", 13.8, 1,    5982.95,   -4.4,   0.75093, 2,    5982.93, -124.4,   0.75092, 3,    5982.94,  115.6,   0.75092
"SCN_CN15_421179_CEI", 13.8, 1,    6003.31,   -4.3,   0.75348, 2,     6003.3, -124.3,   0.75348, 3,    6003.31,  115.7,   0.75348
"SCN_CN15_9047_CEI130_ATV", 13.8, 1,    6031.73,   -4.2,   0.75705, 2,    6031.72, -124.2,   0.75705, 3,    6031.72,  115.8,   0.75705
"SCN_CN15_421180_CEI", 13.8, 1,    6031.73,   -4.2,   0.75705, 2,    6031.72, -124.2,   0.75705, 3,    6031.72,  115.8,   0.75705
"SCN_CN15_9037_CEI130_ATV", 13.8, 1,    6080.62,   -4.1,   0.76318, 2,    6080.61, -124.1,   0.76318, 3,    6080.61,  115.9,   0.76318
"SCN_CN15_9047_CEI130_ATV_S", 13.8, 1,    6031.73,   -4.2,   0.75705, 2,    6031.72, -124.2,   0.75705, 3,    6031.72,  115.8,   0.75705
"SCN_CN15_421181_CEI", 13.8, 1,    6091.01,   -4.0,   0.76449, 2,       6091, -124.0,   0.76449, 3,       6091,  116.0,   0.76449
"SCN_CN15_9040_CEI130_ATV", 13.8, 1,    6091.01,   -4.0,   0.76449, 2,       6091, -124.0,   0.76449, 3,       6091,  116.0,   0.76449
"SCN_CN15_421182_CEI", 13.8, 1,    6091.01,   -4.0,   0.76449, 2,       6091, -124.0,   0.76449, 3,       6091,  116.0,   0.76449
"SCN_CN15_421183_CEI", 13.8, 1,    6091.01,   -4.0,   0.76449, 2,       6091, -124.0,   0.76449, 3,       6091,  116.0,   0.76449
"SCN_CN15_421184_CEI", 13.8, 1,    6091.01,   -4.0,   0.76449, 2,       6091, -124.0,   0.76449, 3,       6091,  116.0,   0.76449
"SCN_CN15_421195_CEI", 13.8, 1,    6138.43,   -3.9,   0.77044, 2,    6138.42, -123.9,   0.77044, 3,    6138.42,  116.1,   0.77044
"SCN_CN15_9022_CEI250_ATV", 13.8, 1,     6136.4,   -3.9,   0.77019, 2,    6136.39, -123.9,   0.77018, 3,    6136.39,  116.1,   0.77018
"SCN_CN15_421196_CEI", 13.8, 1,     6141.3,   -3.8,    0.7708, 2,    6141.29, -123.8,    0.7708, 3,    6141.29,  116.2,    0.7708
"SCN_CN15_9025_CEI130_ATV", 13.8, 1,    6143.65,   -3.8,    0.7711, 2,    6143.64, -123.8,   0.77109, 3,    6143.65,  116.2,   0.77109
"SCN_CN15_421197_CEI", 13.8, 1,    6031.39,   -4.2,   0.75701, 2,    6031.38, -124.2,     0.757, 3,    6031.38,  115.8,     0.757
"SCN_CN15_9004_CEI160_ATV", 13.8, 1,    6031.39,   -4.2,   0.75701, 2,    6031.38, -124.2,     0.757, 3,    6031.38,  115.8,     0.757
"SCN_CN15_9005_CEI160_ATV", 13.8, 1,    6031.39,   -4.2,   0.75701, 2,    6031.38, -124.2,     0.757, 3,    6031.38,  115.8,     0.757
"SCN_CN15_9017_CEI130A_ATV", 13.8, 1,    6343.36,   -3.4,   0.79616, 2,    6343.35, -123.4,   0.79616, 3,    6343.35,  116.6,   0.79616
"SCN_CN15_421206_CEI", 13.8, 1,    6343.36,   -3.4,   0.79616, 2,    6343.35, -123.4,   0.79616, 3,    6343.35,  116.6,   0.79616
"SCN_CN15_9034_CEI130A_ATV", 13.8, 1,    6342.02,   -3.4,   0.79599, 2,    6342.01, -123.4,   0.79599, 3,    6342.01,  116.6,   0.79599
"SCN_CN15_421207_CEI", 13.8, 1,    6342.02,   -3.4,   0.79599, 2,    6342.01, -123.4,   0.79599, 3,    6342.01,  116.6,   0.79599
"SCN_CN15_421208_CEI", 13.8, 1,    6342.02,   -3.4,   0.79599, 2,    6342.01, -123.4,   0.79599, 3,    6342.01,  116.6,   0.79599
"SCN_CN15_421209_CEI", 13.8, 1,    6342.02,   -3.4,   0.79599, 2,    6342.01, -123.4,   0.79599, 3,    6342.01,  116.6,   0.79599
"SCN_CN15_421210_CEI", 13.8, 1,    6342.02,   -3.4,   0.79599, 2,    6342.01, -123.4,   0.79599, 3,    6342.01,  116.6,   0.79599
"SCN_CN15_421211_CEI", 13.8, 1,    6342.02,   -3.4,   0.79599, 2,    6342.01, -123.4,   0.79599, 3,    6342.01,  116.6,   0.79599
"SCN_CN15_421212_CEI", 13.8, 1,    6342.02,   -3.4,   0.79599, 2,    6342.01, -123.4,   0.79599, 3,    6342.01,  116.6,   0.79599
"SCN_CN15_9040_CEI130A_ATV", 13.8, 1,    6341.92,   -3.4,   0.79598, 2,    6341.91, -123.4,   0.79598, 3,    6341.91,  116.6,   0.79598
"SCN_CN15_421213_CEI", 13.8, 1,    6341.92,   -3.4,   0.79598, 2,    6341.91, -123.4,   0.79598, 3,    6341.91,  116.6,   0.79598
"SCN_CN15_421218_CEI", 13.8, 1,    6348.58,   -3.4,   0.79682, 2,    6348.57, -123.4,   0.79682, 3,    6348.58,  116.6,   0.79682
"SCN_CN15_9353_CEI065", 13.8, 1,    6348.58,   -3.4,   0.79682, 2,    6348.57, -123.4,   0.79682, 3,    6348.58,  116.6,   0.79682
"SCN_CN15_421219_CEI", 13.8, 1,    6348.58,   -3.4,   0.79682, 2,    6348.57, -123.4,   0.79682, 3,    6348.58,  116.6,   0.79682
"CN_ALCN15", 13.8, 1,    6348.58,   -3.4,   0.79682, 2,    6348.57, -123.4,   0.79682, 3,    6348.58,  116.6,   0.79682
"SCN_CN15_421227_CEI", 13.8, 1,    5915.09,   -4.3,   0.74241, 2,    5915.07, -124.3,   0.74241, 3,    5915.08,  115.7,   0.74241
"SCN_CN15_9006_CEIRJ013_ATV", 13.8, 1,    5915.09,   -4.3,   0.74241, 2,    5915.07, -124.3,   0.74241, 3,    5915.08,  115.7,   0.74241
"SCN_CN15_9067_CEIRJ006_ATV", 13.8, 1,    5918.48,   -4.3,   0.74283, 2,    5918.47, -124.3,   0.74283, 3,    5918.47,  115.7,   0.74283
"SCN_CN15_9064_CEIRJ006_ATV", 13.8, 1,    5918.48,   -4.3,   0.74283, 2,    5918.47, -124.3,   0.74283, 3,    5918.47,  115.7,   0.74283
"SCN_CN15_421241_CEI", 13.8, 1,    5918.48,   -4.3,   0.74283, 2,    5918.47, -124.3,   0.74283, 3,    5918.47,  115.7,   0.74283
"SCN_CN15_9068_CEIRJ006_ATV", 13.8, 1,    5918.48,   -4.3,   0.74283, 2,    5918.47, -124.3,   0.74283, 3,    5918.47,  115.7,   0.74283
"SCN_CN15_9050_CEI160_ATV", 13.8, 1,    7064.96,   -2.0,   0.88673, 2,    7064.95, -122.0,   0.88673, 3,    7064.95,  118.0,   0.88673
"SCN_CN15_9014_CEI077_ATV", 13.8, 1,    7065.77,   -2.0,   0.88683, 2,    7065.77, -122.0,   0.88683, 3,    7065.77,  118.0,   0.88683
"SCN_CN15_9052_CEI160_ATV", 13.8, 1,    7064.96,   -2.0,   0.88673, 2,    7064.95, -122.0,   0.88673, 3,    7064.95,  118.0,   0.88673
"SCN_CN15_421244_CEI", 13.8, 1,    7064.18,   -2.0,   0.88663, 2,    7064.18, -122.0,   0.88663, 3,    7064.18,  118.0,   0.88663
"SCN_CN15_421245_CEI", 13.8, 1,    7063.38,   -2.0,   0.88653, 2,    7063.38, -122.0,   0.88653, 3,    7063.38,  118.0,   0.88653
"SCN_CN15_9005_CEIRJ012_ATV_S", 13.8, 1,    7062.62,   -2.0,   0.88644, 2,    7062.61, -122.0,   0.88643, 3,    7062.61,  118.0,   0.88643
"SCN_CN15_9024_CEI167_ATV", 13.8, 1,    7100.25,   -2.0,   0.89116, 2,    7100.24, -122.0,   0.89116, 3,    7100.25,  118.0,   0.89116
"SCN_CN15_9025_CEI167_ATV", 13.8, 1,    7100.25,   -2.0,   0.89116, 2,    7100.24, -122.0,   0.89116, 3,    7100.25,  118.0,   0.89116
"SCN_CN15_9002_CEIRJ013_ATV", 13.8, 1,    7100.25,   -2.0,   0.89116, 2,    7100.24, -122.0,   0.89116, 3,    7100.25,  118.0,   0.89116
"SCN_CN15_9037_CEI77A_ATV", 13.8, 1,    7116.84,   -2.0,   0.89324, 2,    7116.84, -122.0,   0.89324, 3,    7116.84,  118.0,   0.89324
"SCN_CN15_9035_CEIRJ006_ATV", 13.8, 1,    7116.84,   -2.0,   0.89324, 2,    7116.84, -122.0,   0.89324, 3,    7116.84,  118.0,   0.89324
"SCN_CN15_9036_CEIRJ006_ATV", 13.8, 1,    7116.84,   -2.0,   0.89324, 2,    7116.84, -122.0,   0.89324, 3,    7116.84,  118.0,   0.89324
"SCN_CN15_9105_CEI201_ATV", 13.8, 1,    6027.42,   -4.1,   0.75651, 2,    6027.41, -124.1,   0.75651, 3,    6027.41,  115.9,   0.75651
"SCN_CN15_9102_CEI201_ATV_S", 13.8, 1,    6027.32,   -4.1,   0.75649, 2,     6027.3, -124.1,   0.75649, 3,    6027.31,  115.9,   0.75649
"SCN_CN15_9017_CEI201_ATV", 13.8, 1,    5803.99,   -5.1,   0.72846, 2,    5803.98, -125.1,   0.72846, 3,    5803.98,  114.9,   0.72846
"SCN_CN15_9019_CEI201_ATV", 13.8, 1,    5804.14,   -5.1,   0.72848, 2,    5804.12, -125.1,   0.72848, 3,    5804.13,  114.9,   0.72848
"SCN_CN15_9019_CEI134C_ATV", 13.8, 1,    5873.77,   -4.8,   0.73722, 2,    5873.76, -124.8,   0.73722, 3,    5873.76,  115.2,   0.73722
"SCN_CN15_9020_CEI134C_ATV", 13.8, 1,    5873.75,   -4.8,   0.73722, 2,    5873.74, -124.8,   0.73722, 3,    5873.74,  115.2,   0.73722
"SCN_CN15_9022_CEI134C_ATV", 13.8, 1,    5873.54,   -4.8,   0.73719, 2,    5873.53, -124.8,   0.73719, 3,    5873.53,  115.2,   0.73719
"SCN_CN15_9021_CEI134C_ATV", 13.8, 1,    5873.49,   -4.8,   0.73719, 2,    5873.47, -124.8,   0.73719, 3,    5873.48,  115.2,   0.73719
"SCN_CN15_9023_CEI134C_ATV", 13.8, 1,    5873.45,   -4.8,   0.73718, 2,    5873.44, -124.8,   0.73718, 3,    5873.44,  115.2,   0.73718
"SCN_CN15_9034_CEI134C_ATV", 13.8, 1,    5873.39,   -4.8,   0.73717, 2,    5873.38, -124.8,   0.73717, 3,    5873.38,  115.2,   0.73717
"SCN_CN15_9035_CEI134C_ATV", 13.8, 1,    5873.34,   -4.8,   0.73717, 2,    5873.32, -124.8,   0.73717, 3,    5873.33,  115.2,   0.73717
"SCN_CN15_9036_CEI134C_ATV", 13.8, 1,    5873.29,   -4.8,   0.73716, 2,    5873.28, -124.8,   0.73716, 3,    5873.28,  115.2,   0.73716
"SCN_CN15_9024_CEI134B_ATV", 13.8, 1,    5877.43,   -4.7,   0.73768, 2,    5877.42, -124.7,   0.73768, 3,    5877.42,  115.3,   0.73768
"SCN_CN15_9027_CEI134B_ATV", 13.8, 1,     5877.4,   -4.7,   0.73768, 2,    5877.38, -124.7,   0.73768, 3,    5877.39,  115.3,   0.73768
"SCN_CN15_9026_CEI134B_ATV", 13.8, 1,    5877.38,   -4.7,   0.73768, 2,    5877.37, -124.7,   0.73767, 3,    5877.37,  115.3,   0.73767
"SCN_CN15_9028_CEI134B_ATV", 13.8, 1,    5877.37,   -4.7,   0.73767, 2,    5877.35, -124.7,   0.73767, 3,    5877.36,  115.3,   0.73767
"SCN_CN15_9011_CEI134_ATV", 13.8, 1,    5895.75,   -4.7,   0.73998, 2,    5895.73, -124.7,   0.73998, 3,    5895.74,  115.3,   0.73998
"SCN_CN15_9009_CEI134A_ATV", 13.8, 1,    5894.92,   -4.7,   0.73988, 2,    5894.91, -124.7,   0.73988, 3,    5894.91,  115.3,   0.73988
"SCN_CN15_9002_CEI134_ATV", 13.8, 1,    5897.76,   -4.7,   0.74023, 2,    5897.74, -124.7,   0.74023, 3,    5897.75,  115.3,   0.74023
"SCN_CN15_9003_CEI134_ATV", 13.8, 1,    5897.78,   -4.7,   0.74024, 2,    5897.77, -124.7,   0.74023, 3,    5897.77,  115.3,   0.74023
"SCN_CN15_9101_CEI109", 13.8, 1,    5900.64,   -4.7,   0.74059, 2,    5900.63, -124.7,   0.74059, 3,    5900.63,  115.3,   0.74059
"SCN_CN15_9102_CEI109", 13.8, 1,     5900.6,   -4.7,   0.74059, 2,    5900.59, -124.7,   0.74059, 3,    5900.59,  115.3,   0.74059
"SCN_CN15_9103_CEI109", 13.8, 1,    5900.56,   -4.7,   0.74059, 2,    5900.55, -124.7,   0.74058, 3,    5900.55,  115.3,   0.74058
"SCN_CN15_9104_CEI109", 13.8, 1,    5900.53,   -4.7,   0.74058, 2,    5900.52, -124.7,   0.74058, 3,    5900.52,  115.3,   0.74058
"SCN_CN15_9105_CEI109", 13.8, 1,     5900.5,   -4.7,   0.74058, 2,    5900.49, -124.7,   0.74058, 3,    5900.49,  115.3,   0.74058
"SCN_CN15_9106_CEI109", 13.8, 1,    5900.47,   -4.7,   0.74057, 2,    5900.46, -124.7,   0.74057, 3,    5900.46,  115.3,   0.74057
"SCN_CN15_9108_CEI109", 13.8, 1,    5900.44,   -4.7,   0.74057, 2,    5900.43, -124.7,   0.74057, 3,    5900.43,  115.3,   0.74057
"SCN_CN15_9109_CEI109", 13.8, 1,     5900.4,   -4.7,   0.74057, 2,    5900.39, -124.7,   0.74056, 3,    5900.39,  115.3,   0.74056
"SCN_CN15_9110_CEI109", 13.8, 1,    5900.37,   -4.7,   0.74056, 2,    5900.36, -124.7,   0.74056, 3,    5900.36,  115.3,   0.74056
"SCN_CN15_9111_CEI109", 13.8, 1,    5900.34,   -4.7,   0.74056, 2,    5900.33, -124.7,   0.74056, 3,    5900.33,  115.3,   0.74056
"SCN_CN15_9112_CEI109", 13.8, 1,    5900.33,   -4.7,   0.74056, 2,    5900.31, -124.7,   0.74055, 3,    5900.32,  115.3,   0.74055
"SCN_CN15_9113_CEI109", 13.8, 1,     5900.3,   -4.7,   0.74055, 2,    5900.29, -124.7,   0.74055, 3,    5900.29,  115.3,   0.74055
"SCN_CN15_9114_CEI109", 13.8, 1,    5900.27,   -4.7,   0.74055, 2,    5900.26, -124.7,   0.74055, 3,    5900.26,  115.3,   0.74055
"SCN_CN15_9115_CEI109", 13.8, 1,    5900.21,   -4.7,   0.74054, 2,     5900.2, -124.7,   0.74054, 3,     5900.2,  115.3,   0.74054
"SCN_CN15_9116_CEI109", 13.8, 1,    5900.19,   -4.7,   0.74054, 2,    5900.17, -124.7,   0.74054, 3,    5900.18,  115.3,   0.74054
"SCN_CN15_9010_CEI120", 13.8, 1,    5958.41,   -4.5,   0.74785, 2,     5958.4, -124.5,   0.74784, 3,     5958.4,  115.5,   0.74784
"SCN_CN15_9011_CEI120", 13.8, 1,    5960.41,   -4.5,    0.7481, 2,     5960.4, -124.5,    0.7481, 3,     5960.4,  115.5,    0.7481
"SCN_CN15_9045_CEI130_ATV", 13.8, 1,    6031.63,   -4.2,   0.75704, 2,    6031.62, -124.2,   0.75703, 3,    6031.62,  115.8,   0.75703
"SCN_CN15_9044_CEI130_ATV", 13.8, 1,    6031.62,   -4.2,   0.75703, 2,    6031.61, -124.2,   0.75703, 3,    6031.62,  115.8,   0.75703
"SCN_CN15_9043_CEI130_ATV", 13.8, 1,    6031.55,   -4.2,   0.75703, 2,    6031.54, -124.2,   0.75702, 3,    6031.54,  115.8,   0.75702
"SCN_CN15_9014_CEI69B", 13.8, 1,     6158.9,   -3.8,   0.77301, 2,    6158.89, -123.8,   0.77301, 3,    6158.89,  116.2,   0.77301
"SCN_CN15_9015_CEI69B", 13.8, 1,    6159.65,   -3.8,    0.7731, 2,    6159.64, -123.8,    0.7731, 3,    6159.64,  116.2,    0.7731
"SCN_CN15_9559_CEI109", 13.8, 1,    5891.06,   -4.8,   0.73939, 2,    5891.05, -124.8,   0.73939, 3,    5891.06,  115.2,   0.73939
"SCN_CN15_9570_CEI109", 13.8, 1,    5891.06,   -4.8,   0.73939, 2,    5891.04, -124.8,   0.73939, 3,    5891.05,  115.2,   0.73939
"SCN_CN15_9558_CEI109", 13.8, 1,    5896.51,   -4.7,   0.74008, 2,     5896.5, -124.7,   0.74007, 3,     5896.5,  115.3,   0.74008
"SCN_CN15_9560_CEI109", 13.8, 1,    5887.05,   -4.8,   0.73889, 2,    5887.04, -124.8,   0.73889, 3,    5887.04,  115.2,   0.73889
"SCN_CN15_9555_CEI109", 13.8, 1,    5902.77,   -4.7,   0.74086, 2,    5902.76, -124.7,   0.74086, 3,    5902.76,  115.3,   0.74086
"SCN_CN15_9552_CEI109", 13.8, 1,    5907.39,   -4.7,   0.74144, 2,    5907.38, -124.7,   0.74144, 3,    5907.38,  115.3,   0.74144
"SCN_CN15_9550_CEI109", 13.8, 1,    5911.42,   -4.7,   0.74195, 2,    5911.41, -124.7,   0.74195, 3,    5911.41,  115.3,   0.74195
"SCN_CN15_9548_CEI109", 13.8, 1,    5915.29,   -4.7,   0.74243, 2,    5915.27, -124.7,   0.74243, 3,    5915.28,  115.3,   0.74243
"SCN_CN15_9017_CEI109", 13.8, 1,    5920.56,   -4.6,   0.74309, 2,    5920.55, -124.6,   0.74309, 3,    5920.55,  115.4,   0.74309
"SCN_CN15_9548_CEI109_S", 13.8, 1,    5915.29,   -4.7,   0.74243, 2,    5915.27, -124.7,   0.74243, 3,    5915.28,  115.3,   0.74243
"SCN_CN15_9016_CEI109", 13.8, 1,    5920.45,   -4.6,   0.74308, 2,    5920.43, -124.6,   0.74308, 3,    5920.44,  115.4,   0.74308
"SCN_CN15_9014_CEI109", 13.8, 1,    5920.28,   -4.7,   0.74306, 2,    5920.27, -124.7,   0.74306, 3,    5920.28,  115.3,   0.74306
"SCN_CN15_9013_CEI109", 13.8, 1,    5920.21,   -4.7,   0.74305, 2,     5920.2, -124.7,   0.74305, 3,     5920.2,  115.3,   0.74305
"SCN_CN15_9012_CEI109", 13.8, 1,     5920.1,   -4.7,   0.74304, 2,    5920.09, -124.7,   0.74304, 3,    5920.09,  115.3,   0.74304
"SCN_CN15_9008_CEI109", 13.8, 1,    5920.02,   -4.7,   0.74303, 2,       5920, -124.7,   0.74303, 3,    5920.01,  115.3,   0.74303
"SCN_CN15_9009_CEI109", 13.8, 1,    5919.97,   -4.7,   0.74302, 2,    5919.96, -124.7,   0.74302, 3,    5919.96,  115.3,   0.74302
"SCN_CN15_9010_CEI109", 13.8, 1,    5919.93,   -4.7,   0.74302, 2,    5919.92, -124.7,   0.74301, 3,    5919.92,  115.3,   0.74302
"SCN_CN15_9011_CEI109", 13.8, 1,    5919.89,   -4.7,   0.74301, 2,    5919.88, -124.7,   0.74301, 3,    5919.88,  115.3,   0.74301
"SCN_CN15_9547_CEI109", 13.8, 1,    5915.22,   -4.7,   0.74242, 2,     5915.2, -124.7,   0.74242, 3,    5915.21,  115.3,   0.74242
"SCN_CN15_9007_CEI109", 13.8, 1,    5919.98,   -4.7,   0.74302, 2,    5919.97, -124.7,   0.74302, 3,    5919.97,  115.3,   0.74302
"SCN_CN15_9006_CEI109", 13.8, 1,    5919.96,   -4.7,   0.74302, 2,    5919.95, -124.7,   0.74302, 3,    5919.95,  115.3,   0.74302
"SCN_CN15_9005_CEI109", 13.8, 1,    5919.93,   -4.7,   0.74302, 2,    5919.92, -124.7,   0.74301, 3,    5919.92,  115.3,   0.74301
"SCN_CN15_9004_CEI109", 13.8, 1,    5919.91,   -4.7,   0.74301, 2,     5919.9, -124.7,   0.74301, 3,     5919.9,  115.3,   0.74301
"SCN_CN15_9002_CEI109", 13.8, 1,    6049.01,   -4.1,   0.75922, 2,       6049, -124.1,   0.75922, 3,       6049,  115.9,   0.75922
"SCN_CN15_9003_CEI109", 13.8, 1,    6049.01,   -4.1,   0.75922, 2,       6049, -124.1,   0.75922, 3,       6049,  115.9,   0.75922
"SCN_CN15_9001_CEI109", 13.8, 1,    6049.01,   -4.1,   0.75922, 2,       6049, -124.1,   0.75922, 3,       6049,  115.9,   0.75922
"SCN_CN15_9122_CEI201_ATV", 13.8, 1,    6049.01,   -4.1,   0.75922, 2,       6049, -124.1,   0.75922, 3,       6049,  115.9,   0.75922
"SCN_CN15_9241_CEI109", 13.8, 1,    5839.93,   -5.0,   0.73297, 2,    5839.91, -125.0,   0.73297, 3,    5839.92,  115.0,   0.73297
"SCN_CN15_9204_CEI109", 13.8, 1,    5839.93,   -5.0,   0.73298, 2,    5839.92, -125.0,   0.73297, 3,    5839.93,  115.0,   0.73297
"SCN_CN15_9242_CEI109", 13.8, 1,    5839.92,   -5.0,   0.73297, 2,     5839.9, -125.0,   0.73297, 3,    5839.91,  115.0,   0.73297
"SCN_CN15_9243_CEI109", 13.8, 1,     5839.9,   -5.0,   0.73297, 2,    5839.89, -125.0,   0.73297, 3,     5839.9,  115.0,   0.73297
"SCN_CN15_9244_CEI109", 13.8, 1,    5839.89,   -5.0,   0.73297, 2,    5839.88, -125.0,   0.73297, 3,    5839.88,  115.0,   0.73297
"SCN_CN15_9245_CEI109", 13.8, 1,    5839.87,   -5.0,   0.73297, 2,    5839.86, -125.0,   0.73297, 3,    5839.87,  115.0,   0.73297
"SCN_CN15_9190_CEI109", 13.8, 1,    5838.78,   -5.0,   0.73283, 2,    5838.76, -125.0,   0.73283, 3,    5838.77,  115.0,   0.73283
"SCN_CN15_9191_CEI109", 13.8, 1,    5838.75,   -5.0,   0.73283, 2,    5838.74, -125.0,   0.73283, 3,    5838.75,  115.0,   0.73283
"SCN_CN15_9166_CEI109", 13.8, 1,    5838.72,   -5.0,   0.73282, 2,    5838.71, -125.0,   0.73282, 3,    5838.71,  115.0,   0.73282
"SCN_CN15_9167_CEI109", 13.8, 1,    5838.72,   -5.0,   0.73282, 2,     5838.7, -125.0,   0.73282, 3,    5838.71,  115.0,   0.73282
"SCN_CN15_9168_CEI109", 13.8, 1,    5838.71,   -5.0,   0.73282, 2,     5838.7, -125.0,   0.73282, 3,     5838.7,  115.0,   0.73282
"SCN_CN15_9169_CEI109", 13.8, 1,     5838.7,   -5.0,   0.73282, 2,    5838.68, -125.0,   0.73282, 3,    5838.69,  115.0,   0.73282
"SCN_CN15_9183_CEI109", 13.8, 1,    5838.68,   -5.0,   0.73282, 2,    5838.67, -125.0,   0.73282, 3,    5838.68,  115.0,   0.73282
"SCN_CN15_9330_CEI109", 13.8, 1,    5811.23,   -5.1,   0.72937, 2,    5811.22, -125.1,   0.72937, 3,    5811.22,  114.9,   0.72937
"SCN_CN15_9329_CEI109", 13.8, 1,    5811.76,   -5.1,   0.72944, 2,    5811.75, -125.1,   0.72944, 3,    5811.75,  114.9,   0.72944
"SCN_CN15_9328_CEI109", 13.8, 1,    5812.13,   -5.1,   0.72949, 2,    5812.11, -125.1,   0.72948, 3,    5812.12,  114.9,   0.72948
"SCN_CN15_9165_CEI068", 13.8, 1,     6230.6,   -3.6,   0.78201, 2,    6230.59, -123.6,   0.78201, 3,    6230.59,  116.4,   0.78201
"SCN_CN15_9166_CEI068", 13.8, 1,    6230.55,   -3.6,     0.782, 2,    6230.54, -123.6,     0.782, 3,    6230.54,  116.4,     0.782
"SCN_CN15_9327_CEI109", 13.8, 1,    5812.77,   -5.1,   0.72957, 2,    5812.75, -125.1,   0.72956, 3,    5812.76,  114.9,   0.72956
"SCN_CN15_9399_CEI109", 13.8, 1,    5813.36,   -5.1,   0.72964, 2,    5813.35, -125.1,   0.72964, 3,    5813.35,  114.9,   0.72964
"SCN_CN15_9029_CEI160_ATV", 13.8, 1,    5813.33,   -5.1,   0.72964, 2,    5813.31, -125.1,   0.72963, 3,    5813.32,  114.9,   0.72963
"SCN_CN15_9057_CEI075", 13.8, 1,    5947.58,   -4.2,   0.74649, 2,    5947.56, -124.2,   0.74648, 3,    5947.57,  115.8,   0.74648
"SCN_CN15_9054_CEIRJ006_ATV", 13.8, 1,    5947.57,   -4.2,   0.74648, 2,    5947.56, -124.2,   0.74648, 3,    5947.56,  115.8,   0.74648
"SCN_CN15_9040_CEI77A_ATV", 13.8, 1,    7116.65,   -2.0,   0.89322, 2,    7116.64, -122.0,   0.89322, 3,    7116.65,  118.0,   0.89322
"SCN_CN15_9042_CEI77A_ATV", 13.8, 1,    7116.61,   -2.0,   0.89321, 2,    7116.61, -122.0,   0.89321, 3,    7116.61,  118.0,   0.89321
"SCN_CN15_9043_CEI77A_ATV", 13.8, 1,    7116.58,   -2.0,   0.89321, 2,    7116.57, -122.0,   0.89321, 3,    7116.58,  118.0,   0.89321
"SCN_CN15_9190_CEI77A_ATV", 13.8, 1,    7824.89,   -0.6,   0.98211, 2,    7824.89, -120.6,   0.98211, 3,    7824.89,  119.4,   0.98211
"SCN_CN15_9194_CEI77A_ATV", 13.8, 1,    7838.78,   -0.5,   0.98385, 2,    7838.78, -120.5,   0.98385, 3,    7838.78,  119.5,   0.98385
"SCN_CN15_9195_CEI77A_ATV", 13.8, 1,    7862.36,   -0.5,   0.98681, 2,    7862.36, -120.5,   0.98681, 3,    7862.36,  119.5,   0.98681
"SCN_CN15_9196_CEI77A_ATV", 13.8, 1,    7885.81,   -0.4,   0.98976, 2,    7885.81, -120.4,   0.98975, 3,    7885.81,  119.6,   0.98976
"SCN_CN15_9197_CEI77A_ATV", 13.8, 1,    7911.23,   -0.4,   0.99295, 2,    7911.23, -120.4,   0.99295, 3,    7911.23,  119.6,   0.99295
"SCN_CN15_9198_CEI77A_ATV", 13.8, 1,    7919.08,   -0.3,   0.99393, 2,    7919.08, -120.3,   0.99393, 3,    7919.08,  119.7,   0.99393
"SCN_CN15_9200_CEI77A_ATV", 13.8, 1,    7595.72,   -1.2,   0.95335, 2,    7595.71, -121.2,   0.95335, 3,    7595.72,  118.8,   0.95335
"SCN_CN15_9201_CEI77A_ATV", 13.8, 1,    7595.75,   -1.2,   0.95335, 2,    7595.75, -121.2,   0.95335, 3,    7595.75,  118.8,   0.95335
"SCN_CN15_9039_CEI076", 13.8, 1,    6361.46,   -3.4,   0.79843, 2,    6361.45, -123.4,   0.79843, 3,    6361.46,  116.6,   0.79843
"SCN_CN15_9041_CEI076", 13.8, 1,    6361.46,   -3.4,   0.79843, 2,    6361.45, -123.4,   0.79843, 3,    6361.46,  116.6,   0.79843
"SCN_CN15_9042_CEI076", 13.8, 1,    6361.46,   -3.4,   0.79843, 2,    6361.45, -123.4,   0.79843, 3,    6361.46,  116.6,   0.79843
"SCN_CN15_9044_CEI076", 13.8, 1,    6361.46,   -3.4,   0.79843, 2,    6361.45, -123.4,   0.79843, 3,    6361.46,  116.6,   0.79843
"SCN_CN15_9045_CEI076", 13.8, 1,    6361.46,   -3.4,   0.79843, 2,    6361.45, -123.4,   0.79843, 3,    6361.46,  116.6,   0.79843
"SCN_CN15_9057_CEI068", 13.8, 1,     6355.5,   -3.3,   0.79768, 2,    6355.49, -123.3,   0.79768, 3,    6355.49,  116.7,   0.79768
"SCN_CN15_9058_CEI068", 13.8, 1,     6355.5,   -3.3,   0.79768, 2,    6355.49, -123.3,   0.79768, 3,    6355.49,  116.7,   0.79768
"SCN_CN15_9236_CEI068", 13.8, 1,    6355.49,   -3.3,   0.79768, 2,    6355.48, -123.3,   0.79768, 3,    6355.49,  116.7,   0.79768
"SCN_CN15_9240_CEI068", 13.8, 1,    6355.49,   -3.3,   0.79768, 2,    6355.48, -123.3,   0.79768, 3,    6355.48,  116.7,   0.79768
"SCN_CN15_9063_CEI072", 13.8, 1,    6902.57,   -2.4,   0.86635, 2,    6902.56, -122.4,   0.86635, 3,    6902.56,  117.6,   0.86635
"SCN_CN15_CEI_FL_MT_37442", 13.8, 1,     6902.7,   -2.4,   0.86636, 2,     6902.7, -122.4,   0.86636, 3,     6902.7,  117.6,   0.86636
"SCN_CN15_9088_CEI072", 13.8, 1,     6902.7,   -2.4,   0.86636, 2,     6902.7, -122.4,   0.86636, 3,     6902.7,  117.6,   0.86636
"SCN_CN15_9089_CEI072", 13.8, 1,    6907.11,   -2.4,   0.86692, 2,    6907.11, -122.4,   0.86692, 3,    6907.11,  117.6,   0.86692
"SCN_CN15_9062_CEI072", 13.8, 1,    6897.14,   -2.4,   0.86567, 2,    6897.13, -122.4,   0.86567, 3,    6897.13,  117.6,   0.86567
"SCN_CN15_9061_CEI071", 13.8, 1,    6688.64,   -2.8,    0.8395, 2,    6688.63, -122.8,    0.8395, 3,    6688.64,  117.2,    0.8395
"SCN_CN15_9072_CEI071", 13.8, 1,     6688.6,   -2.8,   0.83949, 2,    6688.59, -122.8,   0.83949, 3,    6688.59,  117.2,   0.83949
"SCN_CN15_9073_CEI071", 13.8, 1,    6688.56,   -2.8,   0.83949, 2,    6688.55, -122.8,   0.83949, 3,    6688.55,  117.2,   0.83949
"SCN_CN15_9075_CEI071", 13.8, 1,    6688.52,   -2.8,   0.83948, 2,    6688.51, -122.8,   0.83948, 3,    6688.51,  117.2,   0.83948
"SCN_CN15_9078_CEI071", 13.8, 1,    6688.48,   -2.8,   0.83948, 2,    6688.47, -122.8,   0.83948, 3,    6688.47,  117.2,   0.83948
"SCN_CN15_9079_CEI071", 13.8, 1,    6688.43,   -2.8,   0.83947, 2,    6688.43, -122.8,   0.83947, 3,    6688.43,  117.2,   0.83947
"SCN_CN15_9080_CEI071", 13.8, 1,    6688.41,   -2.8,   0.83947, 2,     6688.4, -122.8,   0.83947, 3,     6688.4,  117.2,   0.83947
"SCN_CN15_9081_CEI071", 13.8, 1,    6688.37,   -2.8,   0.83946, 2,    6688.36, -122.8,   0.83946, 3,    6688.36,  117.2,   0.83946
"SCN_CN15_9082_CEI071", 13.8, 1,    6688.32,   -2.8,   0.83946, 2,    6688.31, -122.8,   0.83946, 3,    6688.32,  117.2,   0.83946
"SCN_CN15_9083_CEI071", 13.8, 1,    6688.29,   -2.8,   0.83945, 2,    6688.28, -122.8,   0.83945, 3,    6688.28,  117.2,   0.83945
"SCN_CN15_9084_CEI071", 13.8, 1,    6688.24,   -2.8,   0.83945, 2,    6688.24, -122.8,   0.83945, 3,    6688.24,  117.2,   0.83945
"SCN_CN15_9145_CEI220_ATV", 13.8, 1,    5951.89,   -4.5,   0.74703, 2,    5951.88, -124.5,   0.74703, 3,    5951.88,  115.5,   0.74703
"SCN_CN15_9146_CEI220_ATV", 13.8, 1,     5951.8,   -4.5,   0.74702, 2,    5951.78, -124.5,   0.74701, 3,    5951.79,  115.5,   0.74701
"SCN_CN15_9004_CEI220_ATV", 13.8, 1,    6048.82,   -4.1,   0.75919, 2,    6048.81, -124.1,   0.75919, 3,    6048.81,  115.9,   0.75919
"SCN_CN15_9005_CEI220_ATV", 13.8, 1,    6048.81,   -4.1,   0.75919, 2,     6048.8, -124.1,   0.75919, 3,     6048.8,  115.9,   0.75919
"SCN_CN15_9088_CEI201_ATV", 13.8, 1,    6040.39,   -4.1,   0.75813, 2,    6040.37, -124.1,   0.75813, 3,    6040.38,  115.9,   0.75813
"SCN_CN15_9089_CEI201_ATV", 13.8, 1,     6040.4,   -4.1,   0.75814, 2,    6040.39, -124.1,   0.75814, 3,    6040.39,  115.9,   0.75814
"SCN_CN15_9016_CEIRJ003", 13.8, 1,    6041.05,   -4.1,   0.75822, 2,    6041.04, -124.1,   0.75822, 3,    6041.04,  115.9,   0.75822
"SCN_CN15_9089_CEI201_ATV_S", 13.8, 1,     6040.4,   -4.1,   0.75814, 2,    6040.39, -124.1,   0.75814, 3,    6040.39,  115.9,   0.75814
"SCN_CN15_9123_CEI69B", 13.8, 1,    6039.46,   -4.1,   0.75802, 2,    6039.45, -124.1,   0.75802, 3,    6039.45,  115.9,   0.75802
"SCN_CN15_9121_CEI69B", 13.8, 1,    6037.35,   -4.1,   0.75775, 2,    6037.33, -124.1,   0.75775, 3,    6037.34,  115.9,   0.75775
"SCN_CN15_9119_CEI69B", 13.8, 1,    6034.75,   -4.1,   0.75743, 2,    6034.74, -124.1,   0.75743, 3,    6034.74,  115.9,   0.75743
"SCN_CN15_9276_CEI109", 13.8, 1,    5878.52,   -4.8,   0.73782, 2,    5878.51, -124.8,   0.73782, 3,    5878.51,  115.2,   0.73782
"SCN_CN15_9277_CEI109", 13.8, 1,    5876.41,   -4.8,   0.73755, 2,     5876.4, -124.8,   0.73755, 3,    5876.41,  115.2,   0.73755
"SCN_CN15_9118_CEI69B", 13.8, 1,    6032.32,   -4.1,   0.75712, 2,     6032.3, -124.1,   0.75712, 3,    6032.31,  115.9,   0.75712
"SCN_CN15_9114_CEI230_ATV", 13.8, 1,    6026.21,   -4.1,   0.75635, 2,    6026.19, -124.1,   0.75635, 3,     6026.2,  115.9,   0.75635
"SCN_CN15_9113_CEI230_ATV", 13.8, 1,    6021.76,   -4.1,    0.7558, 2,    6021.75, -124.1,    0.7558, 3,    6021.75,  115.9,    0.7558
"SCN_CN15_9112_CEI230_ATV", 13.8, 1,    6013.39,   -4.1,   0.75475, 2,    6013.38, -124.1,   0.75474, 3,    6013.38,  115.9,   0.75474
"SCN_CN15_9111_CEI230_ATV_S", 13.8, 1,    6012.69,   -4.1,   0.75466, 2,    6012.68, -124.1,   0.75466, 3,    6012.68,  115.9,   0.75466
"SCN_CN15_9110_CEI230_ATV", 13.8, 1,    6012.66,   -4.1,   0.75466, 2,    6012.65, -124.1,   0.75465, 3,    6012.65,  115.9,   0.75465
"SCN_CN15_9111_CEI230_ATV", 13.8, 1,    6012.69,   -4.1,   0.75466, 2,    6012.68, -124.1,   0.75466, 3,    6012.68,  115.9,   0.75466
"SCN_CN15_9109_CEI230_ATV", 13.8, 1,    6012.64,   -4.1,   0.75465, 2,    6012.63, -124.1,   0.75465, 3,    6012.63,  115.9,   0.75465
"SCN_CN15_9108_CEI230_ATV", 13.8, 1,    6012.62,   -4.1,   0.75465, 2,     6012.6, -124.1,   0.75465, 3,    6012.61,  115.9,   0.75465
"SCN_CN15_9107_CEI230_ATV", 13.8, 1,     6012.6,   -4.1,   0.75465, 2,    6012.59, -124.1,   0.75465, 3,    6012.59,  115.9,   0.75465
"SCN_CN15_9106_CEI230_ATV", 13.8, 1,    6012.59,   -4.1,   0.75465, 2,    6012.57, -124.1,   0.75464, 3,    6012.58,  115.9,   0.75464
"SCN_CN15_9278_CEI109", 13.8, 1,    5874.54,   -4.8,   0.73732, 2,    5874.53, -124.8,   0.73732, 3,    5874.54,  115.2,   0.73732
"SCN_CN15_9104_CEI230_ATV", 13.8, 1,    6012.57,   -4.1,   0.75464, 2,    6012.56, -124.1,   0.75464, 3,    6012.56,  115.9,   0.75464
"SCN_CN15_9105_CEI230_ATV", 13.8, 1,    6012.56,   -4.1,   0.75464, 2,    6012.55, -124.1,   0.75464, 3,    6012.55,  115.9,   0.75464
"SCN_CN15_9103_CEI230_ATV", 13.8, 1,    6012.54,   -4.1,   0.75464, 2,    6012.53, -124.1,   0.75464, 3,    6012.53,  115.9,   0.75464
"SCN_CN15_9102_CEI230_ATV", 13.8, 1,    6012.53,   -4.1,   0.75464, 2,    6012.52, -124.1,   0.75464, 3,    6012.52,  115.9,   0.75464
"SCN_CN15_9100_CEI230_ATV", 13.8, 1,    6012.52,   -4.1,   0.75464, 2,     6012.5, -124.1,   0.75463, 3,    6012.51,  115.9,   0.75464
"SCN_CN15_9099_CEI230_ATV", 13.8, 1,     6012.5,   -4.1,   0.75463, 2,    6012.49, -124.1,   0.75463, 3,    6012.49,  115.9,   0.75463
"SCN_CN15_9098_CEI230_ATV", 13.8, 1,    6012.49,   -4.1,   0.75463, 2,    6012.48, -124.1,   0.75463, 3,    6012.48,  115.9,   0.75463
"SCN_CN15_9097_CEI230_ATV", 13.8, 1,    6012.48,   -4.1,   0.75463, 2,    6012.47, -124.1,   0.75463, 3,    6012.47,  115.9,   0.75463
"SCN_CN15_9096_CEI230_ATV", 13.8, 1,    6012.47,   -4.1,   0.75463, 2,    6012.45, -124.1,   0.75463, 3,    6012.46,  115.9,   0.75463
"SCN_CN15_9094_CEI230_ATV", 13.8, 1,    6012.46,   -4.1,   0.75463, 2,    6012.45, -124.1,   0.75463, 3,    6012.45,  115.9,   0.75463
"SCN_CN15_9281_CEI109", 13.8, 1,    5873.16,   -4.8,   0.73715, 2,    5873.15, -124.8,   0.73714, 3,    5873.16,  115.2,   0.73715
"SCN_CN15_9095_CEI230_ATV", 13.8, 1,    6012.46,   -4.1,   0.75463, 2,    6012.44, -124.1,   0.75463, 3,    6012.45,  115.9,   0.75463
"SCN_CN15_9120_CEI230_ATV", 13.8, 1,    6004.05,   -4.1,   0.75357, 2,    6004.03, -124.1,   0.75357, 3,    6004.04,  115.9,   0.75357
"SCN_CN15_9115_CEI230_ATV", 13.8, 1,    6003.91,   -4.1,   0.75356, 2,    6003.89, -124.1,   0.75355, 3,     6003.9,  115.9,   0.75355
"SCN_CN15_9119_CEI230_ATV", 13.8, 1,    5995.64,   -4.1,   0.75252, 2,    5995.63, -124.1,   0.75252, 3,    5995.63,  115.9,   0.75252
"SCN_CN15_9331_CEI109", 13.8, 1,    5810.63,   -5.1,    0.7293, 2,    5810.61, -125.1,    0.7293, 3,    5810.62,  114.9,    0.7293
"SCN_CN15_9332_CEI109", 13.8, 1,    5810.28,   -5.1,   0.72925, 2,    5810.27, -125.1,   0.72925, 3,    5810.27,  114.9,   0.72925
"SCN_CN15_9118_CEI230_ATV", 13.8, 1,    5987.36,   -4.1,   0.75148, 2,    5987.34, -124.1,   0.75148, 3,    5987.35,  115.9,   0.75148
"SCN_CN15_9117_CEI230_ATV", 13.8, 1,    5978.75,   -4.1,    0.7504, 2,    5978.74, -124.1,    0.7504, 3,    5978.74,  115.9,    0.7504
"SCN_CN15_9116_CEI230_ATV", 13.8, 1,     5970.6,   -4.1,   0.74938, 2,    5970.58, -124.1,   0.74937, 3,    5970.59,  115.9,   0.74937
"SCN_CN15_9014_CEIRJ003", 13.8, 1,    5962.77,   -4.1,   0.74839, 2,    5962.76, -124.1,   0.74839, 3,    5962.76,  115.9,   0.74839
"SCN_CN15_9002_CEI075", 13.8, 1,    5961.78,   -4.1,   0.74827, 2,    5961.77, -124.1,   0.74827, 3,    5961.77,  115.9,   0.74827
"SCN_CN15_9003_CEI075", 13.8, 1,    5960.74,   -4.1,   0.74814, 2,    5960.73, -124.1,   0.74814, 3,    5960.73,  115.9,   0.74814
"SCN_CN15_9282_CEI109", 13.8, 1,    5871.86,   -4.8,   0.73698, 2,    5871.84, -124.8,   0.73698, 3,    5871.85,  115.2,   0.73698
"SCN_CN15_9004_CEI075", 13.8, 1,    5959.58,   -4.1,   0.74799, 2,    5959.56, -124.1,   0.74799, 3,    5959.57,  115.9,   0.74799
"SCN_CN15_9052_CEIRJ006_ATV", 13.8, 1,    5960.72,   -4.1,   0.74814, 2,     5960.7, -124.1,   0.74813, 3,    5960.71,  115.9,   0.74813
"SCN_CN15_9005_CEI075", 13.8, 1,    5958.37,   -4.2,   0.74784, 2,    5958.35, -124.2,   0.74784, 3,    5958.36,  115.8,   0.74784
"SCN_CN15_9006_CEI075", 13.8, 1,    5956.92,   -4.2,   0.74766, 2,     5956.9, -124.2,   0.74766, 3,     5956.9,  115.8,   0.74766
"SCN_CN15_9007_CEI075", 13.8, 1,    5955.81,   -4.2,   0.74752, 2,     5955.8, -124.2,   0.74752, 3,     5955.8,  115.8,   0.74752
"SCN_CN15_9008_CEI075", 13.8, 1,    5954.43,   -4.2,   0.74735, 2,    5954.41, -124.2,   0.74734, 3,    5954.42,  115.8,   0.74734
"SCN_CN15_9009_CEI075", 13.8, 1,    5953.06,   -4.2,   0.74717, 2,    5953.05, -124.2,   0.74717, 3,    5953.05,  115.8,   0.74717
"SCN_CN15_9169_CEI230_ATV", 13.8, 1,    5953.05,   -4.2,   0.74717, 2,    5953.04, -124.2,   0.74717, 3,    5953.04,  115.8,   0.74717
"SCN_CN15_9010_CEI075", 13.8, 1,    5952.86,   -4.2,   0.74715, 2,    5952.84, -124.2,   0.74715, 3,    5952.85,  115.8,   0.74715
"SCN_CN15_9011_CEI075", 13.8, 1,    5952.64,   -4.2,   0.74712, 2,    5952.62, -124.2,   0.74712, 3,    5952.63,  115.8,   0.74712
"SCN_CN15_9012_CEI075", 13.8, 1,    5952.42,   -4.2,   0.74709, 2,    5952.41, -124.2,   0.74709, 3,    5952.41,  115.8,   0.74709
"SCN_CN15_9283_CEI109", 13.8, 1,    5869.87,   -4.8,   0.73673, 2,    5869.86, -124.8,   0.73673, 3,    5869.86,  115.2,   0.73673
"SCN_CN15_9013_CEI075", 13.8, 1,    5952.13,   -4.2,   0.74706, 2,    5952.11, -124.2,   0.74706, 3,    5952.11,  115.8,   0.74706
"SCN_CN15_9014_CEI075", 13.8, 1,    5951.84,   -4.2,   0.74702, 2,    5951.83, -124.2,   0.74702, 3,    5951.83,  115.8,   0.74702
"SCN_CN15_9015_CEI075", 13.8, 1,    5951.56,   -4.2,   0.74699, 2,    5951.55, -124.2,   0.74698, 3,    5951.55,  115.8,   0.74698
"SCN_CN15_9016_CEI075", 13.8, 1,    5951.27,   -4.2,   0.74695, 2,    5951.26, -124.2,   0.74695, 3,    5951.26,  115.8,   0.74695
"SCN_CN15_9017_CEI075", 13.8, 1,       5951,   -4.2,   0.74692, 2,    5950.98, -124.2,   0.74691, 3,    5950.99,  115.8,   0.74691
"SCN_CN15_9018_CEI075", 13.8, 1,    5950.71,   -4.2,   0.74688, 2,    5950.69, -124.2,   0.74688, 3,    5950.69,  115.8,   0.74688
"SCN_CN15_9019_CEI075", 13.8, 1,    5950.56,   -4.2,   0.74686, 2,    5950.54, -124.2,   0.74686, 3,    5950.55,  115.8,   0.74686
"SCN_CN15_9020_CEI075", 13.8, 1,    5950.41,   -4.2,   0.74684, 2,     5950.4, -124.2,   0.74684, 3,     5950.4,  115.8,   0.74684
"SCN_CN15_9022_CEI075", 13.8, 1,    5950.15,   -4.2,   0.74681, 2,    5950.14, -124.2,   0.74681, 3,    5950.14,  115.8,   0.74681
"SCN_CN15_9023_CEI075", 13.8, 1,    5949.93,   -4.2,   0.74678, 2,    5949.91, -124.2,   0.74678, 3,    5949.91,  115.8,   0.74678
"SCN_CN15_9284_CEI109", 13.8, 1,    5868.33,   -4.8,   0.73654, 2,    5868.31, -124.8,   0.73654, 3,    5868.32,  115.2,   0.73654
"SCN_CN15_9024_CEI075", 13.8, 1,    5949.64,   -4.2,   0.74675, 2,    5949.63, -124.2,   0.74674, 3,    5949.63,  115.8,   0.74674
"SCN_CN15_9025_CEI075", 13.8, 1,    5949.39,   -4.2,   0.74671, 2,    5949.38, -124.2,   0.74671, 3,    5949.38,  115.8,   0.74671
"SCN_CN15_9072_CEI230_ATV", 13.8, 1,    5949.37,   -4.2,   0.74671, 2,    5949.35, -124.2,   0.74671, 3,    5949.36,  115.8,   0.74671
"SCN_CN15_9028_CEI075", 13.8, 1,     5948.8,   -4.2,   0.74664, 2,    5948.79, -124.2,   0.74664, 3,    5948.79,  115.8,   0.74664
"SCN_CN15_9029_CEI075", 13.8, 1,    5948.67,   -4.2,   0.74662, 2,    5948.66, -124.2,   0.74662, 3,    5948.66,  115.8,   0.74662
"SCN_CN15_9027_CEI075", 13.8, 1,    5948.94,   -4.2,   0.74666, 2,    5948.92, -124.2,   0.74665, 3,    5948.93,  115.8,   0.74666
"SCN_CN15_9026_CEI075", 13.8, 1,    5949.16,   -4.2,   0.74668, 2,    5949.14, -124.2,   0.74668, 3,    5949.15,  115.8,   0.74668
"SCN_CN15_9030_CEI075", 13.8, 1,    5948.62,   -4.2,   0.74662, 2,     5948.6, -124.2,   0.74661, 3,    5948.61,  115.8,   0.74661
"SCN_CN15_9074_CEI230_ATV", 13.8, 1,    5948.45,   -4.2,   0.74659, 2,    5948.43, -124.2,   0.74659, 3,    5948.43,  115.8,   0.74659
"SCN_CN15_9075_CEI230_ATV", 13.8, 1,    5948.34,   -4.2,   0.74658, 2,    5948.33, -124.2,   0.74658, 3,    5948.33,  115.8,   0.74658
"SCN_CN15_9292_CEI109_S", 13.8, 1,    5866.02,   -4.9,   0.73625, 2,    5866.01, -124.9,   0.73625, 3,    5866.01,  115.1,   0.73625
"SCN_CN15_9076_CEI230_ATV_S", 13.8, 1,    5948.28,   -4.2,   0.74657, 2,    5948.26, -124.2,   0.74657, 3,    5948.27,  115.8,   0.74657
"SCN_CN15_9076_CEI230_ATV", 13.8, 1,    5948.28,   -4.2,   0.74657, 2,    5948.26, -124.2,   0.74657, 3,    5948.27,  115.8,   0.74657
"SCN_CN15_9079_CEI230_ATV", 13.8, 1,    5948.19,   -4.2,   0.74656, 2,    5948.18, -124.2,   0.74656, 3,    5948.18,  115.8,   0.74656
"SCN_CN15_9078_CEI230_ATV", 13.8, 1,    5948.11,   -4.2,   0.74655, 2,     5948.1, -124.2,   0.74655, 3,     5948.1,  115.8,   0.74655
"SCN_CN15_9077_CEI230_ATV", 13.8, 1,    5948.18,   -4.2,   0.74656, 2,    5948.16, -124.2,   0.74656, 3,    5948.16,  115.8,   0.74656
"SCN_CN15_9080_CEI230_ATV", 13.8, 1,    5948.06,   -4.2,   0.74655, 2,    5948.05, -124.2,   0.74655, 3,    5948.05,  115.8,   0.74655
"SCN_CN15_9081_CEI230_ATV", 13.8, 1,    5947.97,   -4.2,   0.74654, 2,    5947.96, -124.2,   0.74653, 3,    5947.96,  115.8,   0.74653
"SCN_CN15_9082_CEI230_ATV", 13.8, 1,    5947.97,   -4.2,   0.74654, 2,    5947.96, -124.2,   0.74653, 3,    5947.96,  115.8,   0.74653
"SCN_CN15_9084_CEI230_ATV", 13.8, 1,    5947.93,   -4.2,   0.74653, 2,    5947.92, -124.2,   0.74653, 3,    5947.92,  115.8,   0.74653
"SCN_CN15_9085_CEI230_ATV", 13.8, 1,    5947.89,   -4.2,   0.74653, 2,    5947.88, -124.2,   0.74652, 3,    5947.88,  115.8,   0.74652
"SCN_CN15_9086_CEI230_ATV", 13.8, 1,    5947.85,   -4.2,   0.74652, 2,    5947.84, -124.2,   0.74652, 3,    5947.84,  115.8,   0.74652
"SCN_CN15_9292_CEI109", 13.8, 1,    5866.02,   -4.9,   0.73625, 2,    5866.01, -124.9,   0.73625, 3,    5866.01,  115.1,   0.73625
"SCN_CN15_9423_CEI109", 13.8, 1,    5865.95,   -4.9,   0.73624, 2,    5865.94, -124.9,   0.73624, 3,    5865.94,  115.1,   0.73624
"SCN_CN15_9087_CEI230_ATV", 13.8, 1,    5947.82,   -4.2,   0.74652, 2,    5947.81, -124.2,   0.74652, 3,    5947.81,  115.8,   0.74652
"SCN_CN15_9083_CEI230_ATV", 13.8, 1,    5947.94,   -4.2,   0.74653, 2,    5947.92, -124.2,   0.74653, 3,    5947.93,  115.8,   0.74653
"SCN_CN15_9088_CEI230_ATV", 13.8, 1,     5947.9,   -4.2,   0.74653, 2,    5947.89, -124.2,   0.74653, 3,    5947.89,  115.8,   0.74653
"SCN_CN15_9090_CEI230_ATV", 13.8, 1,    5947.87,   -4.2,   0.74652, 2,    5947.86, -124.2,   0.74652, 3,    5947.86,  115.8,   0.74652
"SCN_CN15_9084_CEI148_ATV", 13.8, 1,    5794.52,   -5.1,   0.72728, 2,     5794.5, -125.1,   0.72727, 3,    5794.51,  114.9,   0.72727
"SCN_CN15_9083_CEI148_ATV", 13.8, 1,    5795.06,   -5.1,   0.72734, 2,    5795.05, -125.1,   0.72734, 3,    5795.05,  114.9,   0.72734
"SCN_CN15_9086_CEI148_ATV", 13.8, 1,    5794.08,   -5.1,   0.72722, 2,    5794.07, -125.1,   0.72722, 3,    5794.07,  114.9,   0.72722
"SCN_CN15_9100_CEI201_ATV", 13.8, 1,    6027.27,   -4.1,   0.75649, 2,    6027.26, -124.1,   0.75649, 3,    6027.26,  115.9,   0.75649
"SCN_CN15_9102_CEI201_ATV", 13.8, 1,    6027.32,   -4.1,   0.75649, 2,     6027.3, -124.1,   0.75649, 3,    6027.31,  115.9,   0.75649
"SCN_CN15_9087_CEI148_ATV", 13.8, 1,    5793.19,   -5.1,   0.72711, 2,    5793.18, -125.1,   0.72711, 3,    5793.18,  114.9,   0.72711
"SCN_CN15_9088_CEI148_ATV", 13.8, 1,    5793.16,   -5.1,    0.7271, 2,    5793.14, -125.1,    0.7271, 3,    5793.15,  114.9,    0.7271
"SCN_CN15_9090_CEI148_ATV", 13.8, 1,    5793.07,   -5.1,   0.72709, 2,    5793.06, -125.1,   0.72709, 3,    5793.07,  114.9,   0.72709
"SCN_CN15_9424_CEI109", 13.8, 1,    5865.84,   -4.9,   0.73623, 2,    5865.83, -124.9,   0.73623, 3,    5865.83,  115.1,   0.73623
"SCN_CN15_9034_CEI148A_ATV", 13.8, 1,    5792.61,   -5.1,   0.72704, 2,     5792.6, -125.1,   0.72703, 3,     5792.6,  114.9,   0.72704
"SCN_CN15_9033_CEI148A_ATV", 13.8, 1,    5792.09,   -5.1,   0.72697, 2,    5792.08, -125.1,   0.72697, 3,    5792.08,  114.9,   0.72697
"SCN_CN15_9035_CEI148A_ATV", 13.8, 1,    5792.07,   -5.1,   0.72697, 2,    5792.06, -125.1,   0.72697, 3,    5792.07,  114.9,   0.72697
"SCN_CN15_9031_CEI148A_ATV", 13.8, 1,    5791.54,   -5.1,    0.7269, 2,    5791.53, -125.1,    0.7269, 3,    5791.53,  114.9,    0.7269
"SCN_CN15_9030_CEI148A_ATV", 13.8, 1,    5791.04,   -5.1,   0.72684, 2,    5791.03, -125.1,   0.72684, 3,    5791.03,  114.9,   0.72684
"SCN_CN15_9029_CEI148A_ATV_S", 13.8, 1,    5790.99,   -5.1,   0.72683, 2,    5790.98, -125.1,   0.72683, 3,    5790.98,  114.9,   0.72683
"SCN_CN15_9028_CEI148A_ATV", 13.8, 1,    5790.97,   -5.1,   0.72683, 2,    5790.96, -125.1,   0.72683, 3,    5790.96,  114.9,   0.72683
"SCN_CN15_9029_CEI148A_ATV", 13.8, 1,    5790.99,   -5.1,   0.72683, 2,    5790.98, -125.1,   0.72683, 3,    5790.98,  114.9,   0.72683
"SCN_CN15_9032_CEI148A_ATV", 13.8, 1,    5790.96,   -5.1,   0.72683, 2,    5790.95, -125.1,   0.72683, 3,    5790.95,  114.9,   0.72683
"SCN_CN15_9078_CEI201_ATV", 13.8, 1,    5790.93,   -5.1,   0.72683, 2,    5790.92, -125.1,   0.72682, 3,    5790.92,  114.9,   0.72682
"SCN_CN15_9075_CEI201_ATV", 13.8, 1,     5790.9,   -5.1,   0.72682, 2,    5790.89, -125.1,   0.72682, 3,    5790.89,  114.9,   0.72682
"SCN_CN15_9425_CEI109", 13.8, 1,    5865.74,   -4.9,   0.73621, 2,    5865.72, -124.9,   0.73621, 3,    5865.73,  115.1,   0.73621
"SCN_CN15_9025_CEI148A_ATV", 13.8, 1,    5790.55,   -5.1,   0.72678, 2,    5790.54, -125.1,   0.72678, 3,    5790.54,  114.9,   0.72678
"SCN_CN15_9023_CEI148A_ATV_S", 13.8, 1,     5789.6,   -5.1,   0.72666, 2,    5789.59, -125.1,   0.72666, 3,    5789.59,  114.9,   0.72666
"SCN_CN15_9028_CEI69A", 13.8, 1,    5789.59,   -5.1,   0.72666, 2,    5789.57, -125.1,   0.72665, 3,    5789.58,  114.9,   0.72666
"SCN_CN15_9023_CEI148A_ATV", 13.8, 1,     5789.6,   -5.1,   0.72666, 2,    5789.59, -125.1,   0.72666, 3,    5789.59,  114.9,   0.72666
"SCN_CN15_9022_CEI148A_ATV", 13.8, 1,    5789.56,   -5.1,   0.72665, 2,    5789.55, -125.1,   0.72665, 3,    5789.55,  114.9,   0.72665
"SCN_CN15_9021_CEI148A_ATV", 13.8, 1,    5789.51,   -5.1,   0.72665, 2,     5789.5, -125.1,   0.72664, 3,     5789.5,  114.9,   0.72665
"SCN_CN15_9020_CEI148A_ATV_S", 13.8, 1,    5789.48,   -5.1,   0.72664, 2,    5789.47, -125.1,   0.72664, 3,    5789.47,  114.9,   0.72664
"SCN_CN15_9020_CEI148A_ATV", 13.8, 1,    5789.48,   -5.1,   0.72664, 2,    5789.47, -125.1,   0.72664, 3,    5789.47,  114.9,   0.72664
"SCN_CN15_9019_CEI148A_ATV", 13.8, 1,    5789.47,   -5.1,   0.72664, 2,    5789.46, -125.1,   0.72664, 3,    5789.46,  114.9,   0.72664
"SCN_CN15_9001_CEI148A_ATV", 13.8, 1,    5786.82,   -5.2,   0.72631, 2,     5786.8, -125.2,   0.72631, 3,    5786.81,  114.8,   0.72631
"SCN_CN15_9002_CEI148A_ATV", 13.8, 1,    5786.87,   -5.2,   0.72631, 2,    5786.85, -125.2,   0.72631, 3,    5786.86,  114.8,   0.72631
"SCN_CN15_9003_CEI148A_ATV", 13.8, 1,    5786.89,   -5.2,   0.72632, 2,    5786.88, -125.2,   0.72632, 3,    5786.88,  114.8,   0.72632
"SCN_CN15_9005_CEI148A_ATV", 13.8, 1,    5786.91,   -5.2,   0.72632, 2,     5786.9, -125.2,   0.72632, 3,     5786.9,  114.8,   0.72632
"SCN_CN15_9426_CEI109", 13.8, 1,    5865.65,   -4.9,    0.7362, 2,    5865.64, -124.9,    0.7362, 3,    5865.64,  115.1,    0.7362
"SCN_CN15_9004_CEI148A_ATV", 13.8, 1,    5786.93,   -5.2,   0.72632, 2,    5786.92, -125.2,   0.72632, 3,    5786.93,  114.8,   0.72632
"SCN_CN15_9143_CEI220_ATV", 13.8, 1,    5952.02,   -4.5,   0.74704, 2,    5952.01, -124.5,   0.74704, 3,    5952.02,  115.5,   0.74704
"SCN_CN15_9144_CEI220_ATV", 13.8, 1,    5951.96,   -4.5,   0.74704, 2,    5951.94, -124.5,   0.74703, 3,    5951.95,  115.5,   0.74703
"SCN_CN15_9006_CEI148A_ATV", 13.8, 1,    5786.99,   -5.2,   0.72633, 2,    5786.97, -125.2,   0.72633, 3,    5786.98,  114.8,   0.72633
"SCN_CN15_9007_CEI148A_ATV", 13.8, 1,    5787.04,   -5.2,   0.72634, 2,    5787.03, -125.2,   0.72634, 3,    5787.03,  114.8,   0.72634
"SCN_CN15_9008_CEI148A_ATV", 13.8, 1,    5787.13,   -5.2,   0.72635, 2,    5787.12, -125.2,   0.72635, 3,    5787.12,  114.8,   0.72635
"SCN_CN15_9010_CEI148A_ATV", 13.8, 1,    5787.28,   -5.2,   0.72637, 2,    5787.27, -125.2,   0.72637, 3,    5787.28,  114.8,   0.72637
"SCN_CN15_9009_CEI148A_ATV", 13.8, 1,    5787.13,   -5.2,   0.72635, 2,    5787.11, -125.2,   0.72635, 3,    5787.12,  114.8,   0.72635
"SCN_CN15_9011_CEI148A_ATV", 13.8, 1,    5787.37,   -5.2,   0.72638, 2,    5787.36, -125.2,   0.72638, 3,    5787.37,  114.8,   0.72638
"SCN_CN15_9012_CEI148A_ATV", 13.8, 1,    5787.46,   -5.2,   0.72639, 2,    5787.45, -125.2,   0.72639, 3,    5787.45,  114.8,   0.72639
"SCN_CN15_9013_CEI148A_ATV", 13.8, 1,    5787.61,   -5.2,   0.72641, 2,    5787.59, -125.2,   0.72641, 3,     5787.6,  114.8,   0.72641
"SCN_CN15_9014_CEI148A_ATV", 13.8, 1,    5787.79,   -5.2,   0.72643, 2,    5787.78, -125.2,   0.72643, 3,    5787.78,  114.8,   0.72643
"SCN_CN15_9015_CEI148A_ATV", 13.8, 1,    5787.99,   -5.1,   0.72646, 2,    5787.98, -125.1,   0.72645, 3,    5787.98,  114.9,   0.72645
"SCN_CN15_9427_CEI109", 13.8, 1,    5865.55,   -4.9,   0.73619, 2,    5865.54, -124.9,   0.73619, 3,    5865.54,  115.1,   0.73619
"SCN_CN15_9016_CEI148A_ATV", 13.8, 1,    5788.18,   -5.1,   0.72648, 2,    5788.17, -125.1,   0.72648, 3,    5788.17,  114.9,   0.72648
"SCN_CN15_9017_CEI148A_ATV", 13.8, 1,    5788.27,   -5.1,   0.72649, 2,    5788.25, -125.1,   0.72649, 3,    5788.26,  114.9,   0.72649
"SCN_CN15_9018_CEI148A_ATV", 13.8, 1,    5788.38,   -5.1,   0.72651, 2,    5788.37, -125.1,    0.7265, 3,    5788.37,  114.9,    0.7265
"SCN_CN15_9020_CEI69A", 13.8, 1,    5788.67,   -5.1,   0.72654, 2,    5788.66, -125.1,   0.72654, 3,    5788.66,  114.9,   0.72654
"SCN_CN15_9018_CEI148A_ATV_S", 13.8, 1,    5788.38,   -5.1,   0.72651, 2,    5788.37, -125.1,    0.7265, 3,    5788.37,  114.9,    0.7265
"SCN_CN15_9019_CEI69A", 13.8, 1,    5788.57,   -5.1,   0.72653, 2,    5788.56, -125.1,   0.72653, 3,    5788.57,  114.9,   0.72653
"SCN_CN15_9018_CEI69A", 13.8, 1,    5788.49,   -5.1,   0.72652, 2,    5788.48, -125.1,   0.72652, 3,    5788.48,  114.9,   0.72652
"SCN_CN15_9017_CEI69A", 13.8, 1,    5788.43,   -5.1,   0.72651, 2,    5788.41, -125.1,   0.72651, 3,    5788.42,  114.9,   0.72651
"SCN_CN15_9016_CEI69A", 13.8, 1,    5788.41,   -5.1,   0.72651, 2,     5788.4, -125.1,   0.72651, 3,     5788.4,  114.9,   0.72651
"SCN_CN15_9015_CEI69A", 13.8, 1,    5788.41,   -5.1,   0.72651, 2,     5788.4, -125.1,   0.72651, 3,     5788.4,  114.9,   0.72651
"SCN_CN15_9428_CEI109", 13.8, 1,    5865.44,   -4.9,   0.73618, 2,    5865.43, -124.9,   0.73618, 3,    5865.43,  115.1,   0.73618
"SCN_CN15_9012_CEI69A_S", 13.8, 1,    5788.38,   -5.1,   0.72651, 2,    5788.37, -125.1,    0.7265, 3,    5788.37,  114.9,    0.7265
"SCN_CN15_9012_CEI69A", 13.8, 1,    5788.38,   -5.1,   0.72651, 2,    5788.37, -125.1,    0.7265, 3,    5788.37,  114.9,    0.7265
"SCN_CN15_9013_CEI69A", 13.8, 1,    5788.37,   -5.1,    0.7265, 2,    5788.35, -125.1,    0.7265, 3,    5788.36,  114.9,    0.7265
"SCN_CN15_9014_CEI69A", 13.8, 1,    5788.35,   -5.1,    0.7265, 2,    5788.34, -125.1,    0.7265, 3,    5788.34,  114.9,    0.7265
"SCN_CN15_9011_CEI69A", 13.8, 1,    5788.38,   -5.1,   0.72651, 2,    5788.37, -125.1,    0.7265, 3,    5788.37,  114.9,    0.7265
"SCN_CN15_9073_CEIRJ006_ATV", 13.8, 1,    5793.03,   -5.1,   0.72709, 2,    5793.01, -125.1,   0.72709, 3,    5793.02,  114.9,   0.72709
"SCN_CN15_9091_CEI148_ATV", 13.8, 1,    5793.02,   -5.1,   0.72709, 2,       5793, -125.1,   0.72709, 3,    5793.01,  114.9,   0.72709
"SCN_CN15_9092_CEI148_ATV", 13.8, 1,    5793.01,   -5.1,   0.72709, 2,    5792.99, -125.1,   0.72708, 3,       5793,  114.9,   0.72708
"SCN_CN15_9089_CEI148_ATV", 13.8, 1,       5793,   -5.1,   0.72708, 2,    5792.99, -125.1,   0.72708, 3,    5792.99,  114.9,   0.72708
"SCN_CN15_9042_CEI69A", 13.8, 1,     5793.1,   -5.1,    0.7271, 2,    5793.09, -125.1,    0.7271, 3,    5793.09,  114.9,    0.7271
"SCN_CN15_9100_CEI072", 13.8, 1,    6948.68,   -2.3,   0.87213, 2,    6948.67, -122.3,   0.87213, 3,    6948.67,  117.7,   0.87213
"SCN_CN15_9101_CEI072", 13.8, 1,    6948.59,   -2.3,   0.87212, 2,    6948.58, -122.3,   0.87212, 3,    6948.59,  117.7,   0.87212
"SCN_CN15_9102_CEI072", 13.8, 1,     6948.5,   -2.3,   0.87211, 2,    6948.49, -122.3,   0.87211, 3,    6948.49,  117.7,   0.87211
"SCN_CN15_9103_CEI072", 13.8, 1,    6948.41,   -2.3,    0.8721, 2,     6948.4, -122.3,    0.8721, 3,     6948.4,  117.7,    0.8721
"SCN_CN15_9104_CEI072", 13.8, 1,    6948.32,   -2.3,   0.87209, 2,    6948.31, -122.3,   0.87209, 3,    6948.32,  117.7,   0.87209
"SCN_CN15_9105_CEI072", 13.8, 1,    6948.23,   -2.3,   0.87208, 2,    6948.22, -122.3,   0.87208, 3,    6948.22,  117.7,   0.87208
"SCN_CN15_9491_CEI109", 13.8, 1,    5811.39,   -5.1,   0.72939, 2,    5811.38, -125.1,   0.72939, 3,    5811.38,  114.9,   0.72939
"SCN_CN15_9492_CEI109", 13.8, 1,    5811.28,   -5.1,   0.72938, 2,    5811.27, -125.1,   0.72938, 3,    5811.27,  114.9,   0.72938
"SCN_CN15_9106_CEI072", 13.8, 1,    6948.15,   -2.3,   0.87207, 2,    6948.14, -122.3,   0.87207, 3,    6948.14,  117.7,   0.87207
"SCN_CN15_9107_CEI072", 13.8, 1,    6947.97,   -2.3,   0.87205, 2,    6947.96, -122.3,   0.87205, 3,    6947.96,  117.7,   0.87205
"SCN_CN15_9108_CEI072", 13.8, 1,    6947.83,   -2.3,   0.87203, 2,    6947.83, -122.3,   0.87203, 3,    6947.83,  117.7,   0.87203
"SCN_CN15_9109_CEI072", 13.8, 1,    6947.76,   -2.3,   0.87202, 2,    6947.75, -122.3,   0.87202, 3,    6947.75,  117.7,   0.87202
"SCN_CN15_9110_CEI072", 13.8, 1,    6947.68,   -2.3,   0.87201, 2,    6947.68, -122.3,   0.87201, 3,    6947.68,  117.7,   0.87201
"SCN_CN15_9111_CEI072", 13.8, 1,    6947.59,   -2.3,     0.872, 2,    6947.58, -122.3,     0.872, 3,    6947.59,  117.7,     0.872
"SCN_CN15_9112_CEI072", 13.8, 1,     6947.5,   -2.3,   0.87199, 2,    6947.49, -122.3,   0.87199, 3,     6947.5,  117.7,   0.87199
"SCN_CN15_9113_CEI072", 13.8, 1,     6947.4,   -2.3,   0.87197, 2,     6947.4, -122.3,   0.87197, 3,     6947.4,  117.7,   0.87197
...
"SCN_CN15_592-0899-22", 13.8, 1,    6150.56,   -3.8,   0.77196, 2,    6150.55, -123.8,   0.77196, 3,    6150.55,  116.2,   0.77196
"SCN_CN15_592-0899-22_S", 13.8, 1,    6150.56,   -3.8,   0.77196, 2,    6150.55, -123.8,   0.77196, 3,    6150.55,  116.2,   0.77196
"SCN_CN15_9013_CEI69B", 13.8, 1,    6166.22,   -3.8,   0.77393, 2,    6166.21, -123.8,   0.77393, 3,    6166.22,  116.2,   0.77393
"SCN_CN15_9015_CEI69B_S", 13.8, 1,    6159.65,   -3.8,    0.7731, 2,    6159.64, -123.8,    0.7731, 3,    6159.64,  116.2,    0.7731
"SCN_CN15_9012_CEI69B", 13.8, 1,    6174.13,   -3.8,   0.77492, 2,    6174.12, -123.8,   0.77492, 3,    6174.12,  116.2,   0.77492
"SCN_CN15_9011_CEI69B", 13.8, 1,    6181.88,   -3.7,   0.77589, 2,    6181.87, -123.7,   0.77589, 3,    6181.88,  116.3,   0.77589
"SCN_CN15_9162_CEI068", 13.8, 1,    6191.64,   -3.7,   0.77712, 2,    6191.63, -123.7,   0.77712, 3,    6191.63,  116.3,   0.77712
"SCN_CN15_9163_CEI068", 13.8, 1,    6201.86,   -3.7,    0.7784, 2,    6201.85, -123.7,    0.7784, 3,    6201.85,  116.3,    0.7784
"SCN_CN15_9164_CEI068", 13.8, 1,    6219.84,   -3.6,   0.78066, 2,    6219.83, -123.6,   0.78066, 3,    6219.83,  116.4,   0.78066
"SCN_CN15_9451_CEI109", 13.8, 1,    5864.67,   -4.9,   0.73608, 2,    5864.66, -124.9,   0.73608, 3,    5864.66,  115.1,   0.73608
"SCN_CN15_9169_CEI068", 13.8, 1,    6237.13,   -3.6,   0.78283, 2,    6237.12, -123.6,   0.78283, 3,    6237.13,  116.4,   0.78283
"SCN_CN15_9170_CEI068", 13.8, 1,    6237.29,   -3.6,   0.78285, 2,    6237.28, -123.6,   0.78285, 3,    6237.28,  116.4,   0.78285
"SCN_CN15_9170_CEI068_S", 13.8, 1,    6237.29,   -3.6,   0.78285, 2,    6237.28, -123.6,   0.78285, 3,    6237.28,  116.4,   0.78285
"SCN_CN15_9171_CEI068", 13.8, 1,    6255.87,   -3.6,   0.78518, 2,    6255.86, -123.6,   0.78518, 3,    6255.87,  116.4,   0.78518
"SCN_CN15_9172_CEI068", 13.8, 1,    6276.46,   -3.5,   0.78776, 2,    6276.45, -123.5,   0.78776, 3,    6276.46,  116.5,   0.78776
"SCN_CN15_9182_CEI068", 13.8, 1,    6300.38,   -3.5,   0.79077, 2,    6300.37, -123.5,   0.79076, 3,    6300.37,  116.5,   0.79077
"SCN_CN15_9181_CEI068", 13.8, 1,    6300.34,   -3.5,   0.79076, 2,    6300.33, -123.5,   0.79076, 3,    6300.33,  116.5,   0.79076
"SCN_CN15_9182_CEI068_S", 13.8, 1,    6300.38,   -3.5,   0.79077, 2,    6300.37, -123.5,   0.79076, 3,    6300.37,  116.5,   0.79077
"SCN_CN15_9183_CEI068", 13.8, 1,    6325.36,   -3.4,    0.7939, 2,    6325.35, -123.4,    0.7939, 3,    6325.35,  116.6,    0.7939
"SCN_CN15_9183_CEI068_S", 13.8, 1,    6325.36,   -3.4,    0.7939, 2,    6325.35, -123.4,    0.7939, 3,    6325.35,  116.6,    0.7939
"SCN_CN15_9186_CEI068", 13.8, 1,    6343.89,   -3.4,   0.79623, 2,    6343.88, -123.4,   0.79623, 3,    6343.88,  116.6,   0.79623
"SCN_CN15_9107_CEI068", 13.8, 1,    6355.34,   -3.3,   0.79766, 2,    6355.33, -123.3,   0.79766, 3,    6355.34,  116.7,   0.79766
"SCN_CN15_9450_CEI109", 13.8, 1,    5864.63,   -4.9,   0.73608, 2,    5864.62, -124.9,   0.73607, 3,    5864.63,  115.1,   0.73607
"SCN_CN15_9103_CEI068", 13.8, 1,    6367.95,   -3.3,   0.79925, 2,    6367.94, -123.3,   0.79925, 3,    6367.94,  116.7,   0.79925
"SCN_CN15_9092_CEI068", 13.8, 1,    6367.74,   -3.3,   0.79922, 2,    6367.73, -123.3,   0.79922, 3,    6367.73,  116.7,   0.79922
"SCN_CN15_9091_CEI068", 13.8, 1,    6367.51,   -3.3,   0.79919, 2,     6367.5, -123.3,   0.79919, 3,     6367.5,  116.7,   0.79919
"SCN_CN15_9090_CEI068", 13.8, 1,    6367.08,   -3.3,   0.79914, 2,    6367.07, -123.3,   0.79914, 3,    6367.08,  116.7,   0.79914
"SCN_CN15_9089_CEI068_S", 13.8, 1,    6366.82,   -3.3,   0.79911, 2,    6366.81, -123.3,    0.7991, 3,    6366.81,  116.7,    0.7991
"SCN_CN15_9086_CEI068", 13.8, 1,    6366.47,   -3.3,   0.79906, 2,    6366.46, -123.3,   0.79906, 3,    6366.46,  116.7,   0.79906
"SCN_CN15_9085_CEI068", 13.8, 1,    6366.03,   -3.3,   0.79901, 2,    6366.02, -123.3,     0.799, 3,    6366.02,  116.7,     0.799
"SCN_CN15_9086_CEI068_S", 13.8, 1,    6366.47,   -3.3,   0.79906, 2,    6366.46, -123.3,   0.79906, 3,    6366.46,  116.7,   0.79906
"SCN_CN15_9082_CEI068", 13.8, 1,    6365.51,   -3.3,   0.79894, 2,     6365.5, -123.3,   0.79894, 3,     6365.5,  116.7,   0.79894
"SCN_CN15_9081_CEI068", 13.8, 1,    6364.97,   -3.3,   0.79887, 2,    6364.96, -123.3,   0.79887, 3,    6364.96,  116.7,   0.79887
"SCN_CN15_9080_CEI068", 13.8, 1,    6364.45,   -3.3,   0.79881, 2,    6364.44, -123.3,   0.79881, 3,    6364.44,  116.7,   0.79881
"SCN_CN15_9026_CEI201_ATV", 13.8, 1,    5805.77,   -5.1,   0.72869, 2,    5805.75, -125.1,   0.72869, 3,    5805.76,  114.9,   0.72869
"SCN_CN15_9027_CEI201_ATV", 13.8, 1,    5805.98,   -5.1,   0.72871, 2,    5805.97, -125.1,   0.72871, 3,    5805.98,  114.9,   0.72871
"SCN_CN15_9449_CEI109", 13.8, 1,     5864.6,   -4.9,   0.73607, 2,    5864.59, -124.9,   0.73607, 3,    5864.59,  115.1,   0.73607
"SCN_CN15_9079_CEI068", 13.8, 1,    6363.93,   -3.3,   0.79874, 2,    6363.92, -123.3,   0.79874, 3,    6363.92,  116.7,   0.79874
"SCN_CN15_9078_CEI068", 13.8, 1,    6363.41,   -3.3,   0.79868, 2,     6363.4, -123.3,   0.79868, 3,    6363.41,  116.7,   0.79868
"SCN_CN15_9077_CEI068", 13.8, 1,    6362.89,   -3.3,   0.79861, 2,    6362.88, -123.3,   0.79861, 3,    6362.88,  116.7,   0.79861
"SCN_CN15_9076_CEI068", 13.8, 1,     6362.4,   -3.3,   0.79855, 2,    6362.39, -123.3,   0.79855, 3,    6362.39,  116.7,   0.79855
"SCN_CN15_9075_CEI068", 13.8, 1,    6361.92,   -3.3,   0.79849, 2,    6361.91, -123.3,   0.79849, 3,    6361.91,  116.7,   0.79849
"SCN_CN15_9074_CEI068", 13.8, 1,    6361.42,   -3.3,   0.79843, 2,    6361.41, -123.3,   0.79843, 3,    6361.41,  116.7,   0.79843
"SCN_CN15_9073_CEI068", 13.8, 1,    6360.91,   -3.3,   0.79836, 2,     6360.9, -123.3,   0.79836, 3,     6360.9,  116.7,   0.79836
"SCN_CN15_9072_CEI068", 13.8, 1,    6360.42,   -3.3,    0.7983, 2,    6360.41, -123.3,    0.7983, 3,    6360.41,  116.7,    0.7983
"SCN_CN15_9071_CEI068", 13.8, 1,    6359.95,   -3.3,   0.79824, 2,    6359.94, -123.3,   0.79824, 3,    6359.94,  116.7,   0.79824
"SCN_CN15_9070_CEI068", 13.8, 1,     6359.6,   -3.3,    0.7982, 2,    6359.59, -123.3,    0.7982, 3,    6359.59,  116.7,    0.7982
...